<?xml version="1.0" encoding="UTF-8"?>
<!-- Cenario A: Rota Urbana com caminhao Euro IV -->
<routes>
    <!-- Caminhao pesado diesel Euro IV (HBEFA3) -->
    <vType id="caminhao_euroIV"
           vClass="truck"
           emissionClass="HBEFA3/HDV_D_EU4"
           length="12.0"
           maxSpeed="13.89"
           accel="1.0"
           decel="4.0"
           sigma="0.5"
           color="0,102,204"/>

    <!-- ROTA 1: Urbana (A -> N1 -> B), 5 km, 50 km/h, com semaforo -->
    <route id="rota_urbana" edges="via_1A via_1B"/>

    <!-- 5 caminhoes com intervalo de 60 segundos -->
    <vehicle id="camA_0" type="caminhao_euroIV" route="rota_urbana" depart="0"   />
    <vehicle id="camA_1" type="caminhao_euroIV" route="rota_urbana" depart="60"  />
    <vehicle id="camA_2" type="caminhao_euroIV" route="rota_urbana" depart="120" />
    <vehicle id="camA_3" type="caminhao_euroIV" route="rota_urbana" depart="180" />
    <vehicle id="camA_4" type="caminhao_euroIV" route="rota_urbana" depart="240" />
</routes>
