<?xml version="1.0" encoding="UTF-8"?>
<!-- Cenario D: Rota Urbana com caminhao Euro III (frota mais antiga) -->
<routes>
    <!-- Caminhao pesado diesel Euro III (HBEFA3) - frota mais poluente -->
    <vType id="caminhao_euroIII"
           vClass="truck"
           emissionClass="HBEFA3/HDV_D_EU3"
           length="12.0"
           maxSpeed="13.89"
           accel="1.0"
           decel="4.0"
           sigma="0.5"
           color="153,0,153"/>

    <!-- ROTA 1: Urbana (A -> N1 -> B), 5 km, 50 km/h, com semaforo -->
    <route id="rota_urbana" edges="via_1A via_1B"/>

    <!-- 5 caminhoes com intervalo de 60 segundos -->
    <vehicle id="camD_0" type="caminhao_euroIII" route="rota_urbana" depart="0"   />
    <vehicle id="camD_1" type="caminhao_euroIII" route="rota_urbana" depart="60"  />
    <vehicle id="camD_2" type="caminhao_euroIII" route="rota_urbana" depart="120" />
    <vehicle id="camD_3" type="caminhao_euroIII" route="rota_urbana" depart="180" />
    <vehicle id="camD_4" type="caminhao_euroIII" route="rota_urbana" depart="240" />
</routes>
